LAMMPS (17 Nov 2016)
# Input file for nanocutting of Cubic SiC with a diamond tool
# Chris Fung, June 2013 (last update: Mar 219)

# ------------------------ GPU SETTINGS ----------------------------

#package cuda gpu/node 1 0
#package omp 2 force/neigh

# ------------------------ INITIALIZATION ----------------------------
units 		metal
dimension	3
boundary	s	s	p
atom_style	atomic

variable a equal 4.3667
variable b equal 3.571
variable c equal $a/$b
variable c equal 4.3667/$b
variable c equal 4.3667/3.571
variable dx equal 70*$c
variable dx equal 70*1.22282273872865
variable dy equal 10*$c
variable dy equal 10*1.22282273872865
variable dx1 equal 11+85.5975917110055
variable dy1 equal 12.2282273872865+11
variable rx equal 85.5975917110055+4
variable ry equal 12.2282273872865+4
variable bx1 equal 96.5975917110055-1
variable bx2 equal 95.5975917110055-1
variable by1 equal 23.2282273872865-1
variable by2 equal 22.2282273872865-1

lattice fcc $a
lattice fcc 4.3667
Lattice spacing in x,y,z = 4.3667 4.3667 4.3667
region		whole block 0 99 0 27 0 18
create_box	3 whole
Created orthogonal box = (0 0 0) to (432.303 117.901 78.6006)

# ----------------------- ATOM DEFINITION ----------------------------

# create C atoms for diamond tool
lattice diamond $b orient x 1 0 0 orient y 0 1 0 origin 0 0 0.4
lattice diamond 3.571 orient x 1 0 0 orient y 0 1 0 origin 0 0 0.4
Lattice spacing in x,y,z = 3.571 3.571 3.571

# define the shape, dimension, and initial position of cutting tool
region cut_toolB block 85.5975917110055 96.5975917110055 12.2282273872865 23.2282273872865 INF INF
region cut_toolR cylinder z 89.5975917110055 16.2282273872865  4 INF INF
region trimbox1 block 85.5975917110055 89.5975917110055 12.2282273872865 16.2282273872865 INF INF side out
region cut_toolTr intersect 2 cut_toolB trimbox1
region cut_tool union 2 cut_toolTr cut_toolR

region trimbox2 prism 4.35 15.65 0 1 INF INF 6 0 0

#define boundaries of cutting tool
region ctTop block 85.5975917110055 96.5975917110055 22.2282273872865 23.2282273872865 INF INF
region ctxEnd block 95.5975917110055 96.5975917110055 12.2282273872865 23.2282273872865 INF INF
region ctTSbottom block 85.5975917110055 95.5975917110055 21.2282273872865 22.2282273872865 INF INF
region ctTSxEnd block 94.5975917110055 95.5975917110055 12.2282273872865 22.2282273872865 INF INF
region ctbound union 2 ctTop ctxEnd
region ctTSbound union 2 ctTSbottom ctTSxEnd

# create C atoms of diamond tool and make a nano-groove on the flank face
create_atoms 1 region cut_tool
Created 20658 atoms

delete_atoms region trimbox2
Deleted 0 atoms, new total = 20658

group gpCTall region  cut_tool
20658 atoms in group gpCTall
group gpCTbd  region  ctbound
3696 atoms in group gpCTbd
group gpCTtsbd  region  ctTSbound
3344 atoms in group gpCTtsbd
group gpCTmob subtract gpCTall gpCTbd gpCTtsbd
13618 atoms in group gpCTmob

print "diamond tool created"
diamond tool created
#------------------------------------------------------------

# define the lattice of cubic SiC (two atom types form two interpenetrating face-centered cubic lattices)

# define the shape and dimension of the workpiece
lattice fcc 4.3667 origin 0 0 0 orient x 1 0 0 orient y 0 1 0
Lattice spacing in x,y,z = 4.3667 4.3667 4.3667

# define the boundaries for workpiece
region workpiece block 0 65 0 15 INF INF
region wpbottom block 0 65 0 1 INF INF
region wpxEnd block 0 1 0 15 INF INF
region wpTSbottom block 1 65 1 2 INF INF
region wpTSxEnd block 1 2 1 15 INF INF
region wpbound union 2 wpbottom wpxEnd
region wpTSbound union 2 wpTSbottom wpTSxEnd

# create Si atoms for SiC workpiece
create_atoms	2 region workpiece
Created 73098 atoms

# offset origin for 1/4 unit cell for C atoms
lattice fcc 4.3667 origin 0.25 0.25 0.25 orient x 1 0 0 orient y 0 1 0
Lattice spacing in x,y,z = 4.3667 4.3667 4.3667
create_atoms	3 region workpiece
Created 70200 atoms

# groups atoms
group gpWPall region workpiece
143298 atoms in group gpWPall
group gpWPbd region wpbound
14274 atoms in group gpWPbd
group gpWPtsbd region wpTSbound
13914 atoms in group gpWPtsbd
group gpWPmob subtract gpWPall gpWPbd gpWPtsbd
117936 atoms in group gpWPmob

print "Workpiece created"
Workpiece created

#-------------------------------------------------

# define the mass of atoms
mass 1 12 #.0107 # C (g/mol)
mass 2 28 #.0855 # Si (g/mol)
mass 3 12 #.0107 # C (g/mol)

#group Si type 2
#group C type 1 3

lattice fcc 4.3667 origin 0 0 0
Lattice spacing in x,y,z = 4.3667 4.3667 4.3667

# ------------------------ FORCE FIELDS ------------------------------

pair_style	tersoff
pair_coeff	* * SiC_Erhart-Albe.tersoff C Si C

# ------------------------- SETTINGS ---------------------------------
######################################
# EQUILIBRATION

# set temperature at 300 K
compute myCTtemp gpCTmob temp
compute myWPtemp gpWPmob temp
velocity all create 300 102456 dist uniform

fix 1 gpWPall nvt temp 300.0 300.0 0.05 #iso 1.0 1.0 0.5
fix 2 gpCTall nvt temp 300.0 300.0 0.05 #iso 1.0 1.0 0.5

reset_timestep	0
timestep 0.0005 # set 1 femtosecond per step

fix 3 gpWPbd move linear 0 0 0
fix 4 gpCTbd move linear 0 0 0

fix 10 all balance 100 0.9 shift xy 10 1.05 out tmp.balance
fix 13 all property/atom mol ghost yes

set group gpCTmob mol 1
  13618 settings made for mol
set group gpCTtsbd mol 2
  3344 settings made for mol
set group gpCTbd mol 3
  3696 settings made for mol

set group gpWPmob mol 4
  117936 settings made for mol
set group gpWPtsbd mol 5
  13914 settings made for mol
set group gpWPbd mol 6
  14274 settings made for mol

# Display thermo

thermo 	100
#compute		eCSP all centro/atom fcc
#compute atomke all ke/atom
dump	 e0dumpCSP all custom 1000 dump.cutsic_eq.*.lammpstrj id type mol element x y z vx vy vz # c_atomke
dump_modify e0dumpCSP element C Si C

# backup initial state and every 1000 steps
#write_restart cut_sic_eq.restart.0000.*.mpiio
#restart 1000 cut_sic_eq.restart.*.mpiio

# Run for at least 10 picosecond
print "start run equilibration"
start run equilibration

run 10000
  1 neighbor list requests
  update every 1 steps, delay 10 steps, check yes
Step Temp E_pair E_mol TotEng Press Volume
0          300   -1041618.3            0   -1035260.5   -10030.691      2225842
Averages over the last 51 of 101 rows, steps 5000 to 10000:
Temp E_pair E_mol TotEng Press Volume
299.991 -1.03692e+06 0 -1.03056e+06 -1310.78 2.22584e+06
Loop time of 796.874 on 32 procs for 10000 steps with 163956 atoms

unfix 1
unfix 2
unfix 3
unfix 4
print "Complete equilibration process"
Complete equilibration process

#uncompute eCSP
#undump e0dumpCSP

######################################
# DEFORMATION

# move the tool to closer

#displace_atoms gpCTall move -4.9 0 0

reset_timestep	0
timestep 0.001

# rescale the temperature of thermostatic boundaries to 300 K

fix 1 all nve

fix 3 gpWPbd move linear 0 0 0
fix 4 gpCTbd move linear 0 0 0

# Output strain and stress info to file
# for units metal, pressure is in [bars] = 100 [kPa] = 1/10000 [GPa]
# p2, p3, p4 are in GPa

## Use cfg for AtomEye
#dump 		1 all cfg 2000 dump.cutsic_*.cfg id type xs ys zs c_csym

# Display thermo
#thermo 100
#compute atomdisp  all displace/atom
#compute atomstres all stress/atom
dump	 0dumpCSP all custom 100 dump.cutsic.lammpstrj id type mol element x y z vx vy vz #c_atomdisp[4] c_atomstres[1] c_atomstres[2] c_atomstres[3] c_atomstres[4] c_atomstres[5] c_atomstres[6]
dump_modify 0dumpCSP element C Si C

#write_restart cut_sic.restart.0000
restart 1000 cut_sic.restart
#run		0

######################################
# SIMULATION DONE
print "All done"
All done
