LAMMPS (17 Nov 2016)
# Input file for nanocutting of Cubic SiC with a diamond tool
# Chris Fung, June 2013 (last update: Mar 219)

# ------------------------ GPU SETTINGS ----------------------------

#package cuda gpu/node 1 0
#package omp 2 force/neigh

# ------------------------ INITIALIZATION ----------------------------
units 		metal
dimension	3
boundary	s	s	p
atom_style	atomic

variable a equal 4.3674
variable b equal 3.5716
variable c equal $a/$b
variable c equal 4.3674/$b
variable c equal 4.3674/3.5716
variable dx equal 70*$c
variable dx equal 70*1.22281330496136
variable dy equal 10*$c
variable dy equal 10*1.22281330496136
variable dx1 equal 11+85.5969313472952
variable dy1 equal 12.2281330496136+11
variable rx equal 85.5969313472952+4
variable ry equal 12.2281330496136+4
variable bx1 equal 96.5969313472952-1
variable bx2 equal 95.5969313472952-1
variable by1 equal 23.2281330496136-1
variable by2 equal 22.2281330496136-1

lattice fcc $a
lattice fcc 4.3674
Lattice spacing in x,y,z = 4.3674 4.3674 4.3674
region		whole block 0 99 0 27 0 18
create_box	3 whole
Created orthogonal box = (0 0 0) to (432.373 117.92 78.6132)

# ----------------------- ATOM DEFINITION ----------------------------

# create C atoms for diamond tool
lattice diamond $b orient x 1 0 0 orient y 0 1 0 origin 0 0 0.4
lattice diamond 3.5716 orient x 1 0 0 orient y 0 1 0 origin 0 0 0.4
Lattice spacing in x,y,z = 3.5716 3.5716 3.5716

# define the shape, dimension, and initial position of cutting tool
region cut_toolB block 85.5969313472952 96.5969313472952 12.2281330496136 23.2281330496136 INF INF
region cut_toolR cylinder z 89.5969313472952 16.2281330496136  4 INF INF
region trimbox1 block 85.5969313472952 89.5969313472952 12.2281330496136 16.2281330496136 INF INF side out
region cut_toolTr intersect 2 cut_toolB trimbox1
region cut_tool union 2 cut_toolTr cut_toolR

region trimbox2 prism 4.35 15.65 0 1 INF INF 6 0 0

#define boundaries of cutting tool
region ctTop block 85.5969313472952 96.5969313472952 22.2281330496136 23.2281330496136 INF INF
region ctxEnd block 95.5969313472952 96.5969313472952 12.2281330496136 23.2281330496136 INF INF
region ctTSbottom block 85.5969313472952 95.5969313472952 21.2281330496136 22.2281330496136 INF INF
region ctTSxEnd block 94.5969313472952 95.5969313472952 12.2281330496136 22.2281330496136 INF INF
region ctbound union 2 ctTop ctxEnd
region ctTSbound union 2 ctTSbottom ctTSxEnd

# create C atoms of diamond tool and make a nano-groove on the flank face
create_atoms 1 region cut_tool
Created 20658 atoms

delete_atoms region trimbox2
Deleted 0 atoms, new total = 20658

group gpCTall region  cut_tool
20658 atoms in group gpCTall
group gpCTbd  region  ctbound
3696 atoms in group gpCTbd
group gpCTtsbd  region  ctTSbound
3344 atoms in group gpCTtsbd
group gpCTmob subtract gpCTall gpCTbd gpCTtsbd
13618 atoms in group gpCTmob
group gpCTeq subtract gpCTall gpCTbd
16962 atoms in group gpCTeq

print "diamond tool created"
diamond tool created
#------------------------------------------------------------

# define the lattice of cubic SiC (two atom types form two interpenetrating face-centered cubic lattices)

# define the shape and dimension of the workpiece
lattice fcc $a origin 0 0 0 orient x 1 0 0 orient y 0 1 0
lattice fcc 4.3674 origin 0 0 0 orient x 1 0 0 orient y 0 1 0
Lattice spacing in x,y,z = 4.3674 4.3674 4.3674

# define the boundaries for workpiece
region workpiece block 0 65 0 15 INF INF
region wpbottom block 0 65 0 1 INF INF
region wpxEnd block 0 1 0 15 INF INF
region wpTSbottom block 1 65 1 2 INF INF
region wpTSxEnd block 1 2 1 15 INF INF
region wpbound union 2 wpbottom wpxEnd
region wpTSbound union 2 wpTSbottom wpTSxEnd

# create Si atoms for SiC workpiece
create_atoms	2 region workpiece
Created 73098 atoms

# offset origin for 1/4 unit cell for C atoms
lattice fcc $a origin 0.25 0.25 0.25 orient x 1 0 0 orient y 0 1 0
lattice fcc 4.3674 origin 0.25 0.25 0.25 orient x 1 0 0 orient y 0 1 0
Lattice spacing in x,y,z = 4.3674 4.3674 4.3674
create_atoms	3 region workpiece
Created 70200 atoms

# groups atoms
group gpWPall region workpiece
143298 atoms in group gpWPall
group gpWPbd region wpbound
14274 atoms in group gpWPbd
group gpWPtsbd region wpTSbound
13914 atoms in group gpWPtsbd
group gpWPmob subtract gpWPall gpWPbd gpWPtsbd
117936 atoms in group gpWPmob

print "Workpiece created"
Workpiece created

#-------------------------------------------------

# define the mass of atoms
mass 1 12 #.0107 # C (g/mol)
mass 2 28 #.0855 # Si (g/mol)
mass 3 12 #.0107 # C (g/mol)

#group Si type 2
#group C type 1 3

lattice fcc 4.3667 origin 0 0 0
Lattice spacing in x,y,z = 4.3667 4.3667 4.3667

# ------------------------ FORCE FIELDS ------------------------------

pair_style	tersoff
pair_coeff	* * SiC_Erhart-Albe.tersoff C Si C

# ------------------------- SETTINGS ---------------------------------
######################################
# EQUILIBRATION

# set temperature at 300 K

group gpCTeq union gpCTmob gpCTtsbd
16962 atoms in group gpCTeq
group gpWPeq union gpWPmob gpWPtsbd
131850 atoms in group gpWPeq

compute myCTtemp gpCTeq temp
compute myWPtemp gpWPeq temp
velocity all create 300 102456 dist uniform

fix 1 gpCTeq nvt temp 300.0 300.0 0.05 # aniso 1.0 1.0 0.5
fix_modify 1 temp myCTtemp
fix 2 gpWPeq nvt temp 300.0 300.0 0.05 # aniso 1.0 1.0 0.5
fix_modify 2 temp myWPtemp

reset_timestep	0
timestep 0.001 # set 1 femtosecond per step

fix 3 gpWPbd move linear 0 0 0
fix 4 gpCTbd move linear 0 0 0

fix 10 all balance 100 0.9 shift xy 10 1.05 out tmp.balance
fix 13 all property/atom mol ghost yes

set group gpCTmob mol 1
  13618 settings made for mol
set group gpCTtsbd mol 2
  3344 settings made for mol
set group gpCTbd mol 3
  3696 settings made for mol

set group gpWPmob mol 4
  117936 settings made for mol
set group gpWPtsbd mol 5
  13914 settings made for mol
set group gpWPbd mol 6
  14274 settings made for mol

# Display thermo

thermo 	100
#compute		eCSP all centro/atom fcc
#compute atomke all ke/atom
dump	 e0dumpCSP all custom 500 dump.cutsic_eq.*.lammpstrj id type mol element x y z vx vy vz # c_atomke
dump_modify e0dumpCSP element C Si C

# backup initial state and every 1000 steps
#write_restart cut_sic_eq.restart.0000.*.mpiio
#restart 1000 cut_sic_eq.restart.*.mpiio

# Run for at least 10 picosecond
print "start run equilibration"
start run equilibration

run 100000
  1 neighbor list requests
  update every 1 steps, delay 10 steps, check yes
Step Temp E_pair E_mol TotEng Press Volume
0          300   -1041609.4            0   -1035251.6   -10830.125    2226946.9
Averages over the last 501 of 1001 rows, steps 50000 to 100000:
Temp E_pair E_mol TotEng Press Volume
272.296 -1.03746e+06 0 -1.03169e+06 -2255.14 2.22695e+06
Loop time of 7866.24 on 32 procs for 100000 steps with 163956 atoms

print "Complete equilibration process"
Complete equilibration process

unfix 1
unfix 2
unfix 3
unfix 4
uncompute myCTtemp
uncompute myWPtemp

######################################
# DEFORMATION

# move the tool to closer

#displace_atoms gpCTall move -4.9 0 0

reset_timestep	0
timestep 0.0001

compute myCTtemp gpCTmob temp/partial 0 1 1
compute myWPtemp gpWPmob temp/partial 0 1 1
compute myCTTStemp gpCTtsbd temp
compute myWPTStemp gpWPtsbd temp/partial 0 1 1

# rescale the temperature of thermostatic boundaries to 300 K

fix 1 gpWPtsbd nvt temp 300.0 300.0 0.005 #iso 1.0 1.0 0.5
fix_modify 1 temp myWPTStemp
fix 2 gpCTtsbd nvt temp 300.0 300.0 0.005 #iso 1.0 1.0 0.5
fix_modify 2 temp myCTTStemp

fix 3 gpWPbd move linear 0 0 0
fix 4 gpCTbd move linear -1.0 0 0 units box  # cutting speed = v * 100 (m s^-1 in the x-direction)

group mobile union gpCTmob gpWPmob
131554 atoms in group mobile

fix 5 mobile nve

compute ke all ke/atom
fix 12 all ave/atom 10 50 500 c_ke

thermo 	500
thermo_style custom step c_myCTtemp c_myWPtemp press etotal fmax fnorm

# Output strain and stress info to file
# for units metal, pressure is in [bars] = 100 [kPa] = 1/10000 [GPa]
# p2, p3, p4 are in GPa

## Use cfg for AtomEye
#dump 		1 all cfg 2000 dump.cutsic_*.cfg id type xs ys zs c_csym

# Display thermo
dump	 0dumpCSP all custom  500 dump.cutsic.*.lammpstrj id type mol x y z vx vy vz f_12
dump_modify 0dumpCSP element C Si C

#write_restart cut_sic.restart.0000
#restart 1000 cut_sic.restart
run		1000
Step c_myCTtemp c_myWPtemp Press TotEng Fmax Fnorm
0    303.42344    307.22332   -1756.1554   -1031677.4    6.9451743    710.99711
Loop time of 78.7096 on 32 procs for 1000 steps with 163956 atoms

######################################
# SIMULATION DONE
print "All done"
All done
